Circuit: * C:\Users\rb\Documents\HSRW\Teaching\EE_EEng\REPO\EE_1.08_2_EEng_WS2022\eeng0300_Capacitors\LTspice\RC-lowpass_PWM_V001.asc

.OP point found by inspection.

Date: Thu Nov 03 07:12:38 2022
Total elapsed time: 0.454 seconds.

tnom = 27
temp = 27
method = modified trap
totiter = 31132
traniter = 31132
tranpoints = 15567
accept = 13752
rejected = 1815
matrix size = 3
fillins = 0
solver = Normal
Matrix Compiler1: 50 bytes object code size  0.0/0.0/[0.0]
Matrix Compiler2: 175 bytes object code size  0.0/0.0/[0.0]

