Circuit: * C:\Users\rb\Documents\HSRW\Teaching\EE_EEng\REPO\EE_1.08_2_EEng_WS2022\eeng0300_Capacitors\LTspice\RC-lowpass_PWM_V001.asc

.OP point found by inspection.
.step duty_cycle=0
.step duty_cycle=0.2
.step duty_cycle=0.4
.step duty_cycle=0.6
.step duty_cycle=0.8
.step duty_cycle=1

Date: Thu Nov 17 13:28:13 2022
Total elapsed time: 0.627 seconds.

tnom = 27
temp = 27
method = modified trap
totiter = 20860
traniter = 20860
tranpoints = 10431
accept = 9523
rejected = 908
matrix size = 3
fillins = 0
solver = Normal
Matrix Compiler1: 50 bytes object code size  0.0/0.0/[0.0]
Matrix Compiler2: 175 bytes object code size  0.0/0.1/[0.0]

